35
10303
O         13.12380      -15.04110        0.04830
O         15.30030      -14.45230       -0.04790
N         23.93760      -11.73140       -0.01040
N         16.89140      -10.96680        0.04060
N         16.13780      -11.02020       -0.03360
C         22.16260      -11.53850        0.00250
C         21.43210       -9.91280        0.00160
C         21.13720      -12.97350        0.01600
C         18.66020      -11.15800        0.02780
C         19.67650       -9.72210        0.01430
C         19.38190      -12.78270        0.02870
C         25.10840      -10.40130        0.01790
C         24.61560      -13.27010       -0.05120
C         14.37510      -10.83020       -0.02080
C         13.32820      -12.24920       -0.00710
C         13.66900       -9.19370       -0.02180
C         11.57560      -12.03160        0.00550
C         11.91660       -8.97610       -0.00910
C         10.86990      -10.39490        0.00450
C         14.03040      -13.97310       -0.00570
H         22.19150       -8.77050       -0.00950
H         21.66680      -14.25600        0.01790
H         19.11700       -8.45140        0.01350
H         18.59440      -13.90730        0.03950
H         25.13830       -9.35930       -0.03110
H         26.41310      -10.89490        0.02420
H         24.75640       -9.88520        0.08380
H         25.91220      -13.06120       -0.07670
H         23.83960      -13.67890       -0.10850
H         24.67870      -14.31030       -0.00210
H         14.47280       -8.07930       -0.03240
H         10.72310      -13.11160        0.01540
H         11.36680       -7.70210       -0.01000
H          9.50480      -10.22520        0.01410
H         13.60530      -16.19840        0.04890
