7

  Na -1.1013212200e+00  9.4873441000e-01  1.1652203300e+00
   H  7.1513884000e-01  2.8631478300e+00  1.0831196900e+00
   H -1.4515690000e-02  1.9131829400e+00 -1.2238901400e+00
   O  9.8921160000e-02  2.6665651900e+00  1.8272328900e+00
   O -8.3364694000e-01  1.3592979200e+00 -1.2641609600e+00
   H  6.0062124000e-01  2.8684142000e+00  2.6412788200e+00
   H -1.2254075700e+00  1.4851543100e+00 -2.1428269800e+00
